egret/models/tests/pglib_opf_case3_lmbd_acopf_0950.json
{"elements": {"bus": {"1": {"matpower_bustype": "ref", "area": 1.0, "vm": 1.098005208235781, "va": 0.0, "base_kv": 240.0, "zone": 1.0, "v_min": 0.9, "v_max": 1.1, "lmp": 34.482982815753196, "qlmp": 5.871605358785727e-11, "pl": 104.50000000000001, "ql": 38.0}, "2": {"matpower_bustype": "PV", "area": 1.0, "vm": 0.9261705377769892, "va": 0.15831415518717856, "base_kv": 240.0, "zone": 1.0, "v_min": 0.9, "v_max": 1.1, "lmp": 29.767264899272494, "qlmp": -1.1554143232349732e-11, "pl": 104.50000000000001, "ql": 38.0}, "3": {"matpower_bustype": "PV", "area": 1.0, "vm": 0.9, "va": -0.2697440294473528, "base_kv": 240.0, "zone": 1.0, "v_min": 0.9, "v_max": 1.1, "lmp": 39.73888630191424, "qlmp": -1.0131557506395907e-11, "pl": 90.25, "ql": 47.5}}, "load": {"load_1": {"in_service": true, "p_load": 104.50000000000001, "q_load": 38.0, "bus": "1"}, "load_2": {"in_service": true, "p_load": 104.50000000000001, "q_load": 38.0, "bus": "2"}, "load_3": {"in_service": true, "p_load": 90.25, "q_load": 47.5, "bus": "3"}}, "generator": {"1": {"bus": "1", "pg": 134.01355827117405, "qg": 51.92868259311506, "vg": 1.0, "mbase": 100.0, "in_service": true, "p_min": 0.0, "p_max": 2000.0, "q_min": -1000.0, "q_max": 1000.0, "generator_type": "thermal", "p_cost": {"data_type": "cost_curve", "cost_curve_type": "polynomial", "values": {"0": 0.0, "1": 5.0, "2": 0.11}}, "startup_cost": 0.0, "shutdown_cost": 0.0}, "2": {"bus": "2", "pg": 168.04273471952934, "qg": -10.245078778936817, "vg": 1.0, "mbase": 100.0, "in_service": true, "p_min": 0.0, "p_max": 2000.0, "q_min": -1000.0, "q_max": 1000.0, "generator_type": "thermal", "p_cost": {"data_type": "cost_curve", "cost_curve_type": "polynomial", "values": {"0": 0.0, "1": 1.2, "2": 0.08500000000000002}}, "startup_cost": 0.0, "shutdown_cost": 0.0}, "3": {"bus": "3", "pg": 0.0, "qg": -8.983887445803742, "vg": 1.0, "mbase": 100.0, "in_service": true, "p_min": 0.0, "p_max": 0.0, "q_min": -1000.0, "q_max": 1000.0, "generator_type": "thermal", "p_cost": {"data_type": "cost_curve", "cost_curve_type": "polynomial", "values": {"0": 0.0, "1": 0.0, "2": 0.0}}, "startup_cost": 0.0, "shutdown_cost": 0.0}}, "branch": {"1": {"from_bus": "1", "to_bus": "3", "resistance": 0.065, "reactance": 0.62, "charging_susceptance": 0.45, "branch_type": "line", "rating_long_term": 9000.0, "rating_short_term": 9000.0, "rating_emergency": 9000.0, "in_service": true, "angle_diff_min": -30.0, "angle_diff_max": 30.0, "pf": 46.24667347767812, "qf": 8.855064148247628, "pt": -44.395568358937545, "qt": -36.549716206101934, "pfl": 1.8511051187405758, "qfl": -27.694652057854306, "pf_dual": 3448.2982815754435, "qf_dual": 5.895262645944979e-09}, "2": {"from_bus": "3", "to_bus": "2", "resistance": 0.025, "reactance": 0.75, "charging_susceptance": 0.7, "branch_type": "line", "rating_long_term": 50.0, "rating_short_term": 50.0, "rating_emergency": 50.0, "in_service": true, "angle_diff_min": -30.0, "angle_diff_max": 30.0, "pf": -45.854431641062455, "qf": -19.934171239701808, "pt": 46.52525111730924, "qt": -18.313959278332597, "pfl": 0.6708194762467812, "qfl": -38.24813051803441, "pf_dual": 3647.8888172204247, "qf_dual": -141.7209995408597}, "3": {"from_bus": "1", "to_bus": "2", "resistance": 0.042, "reactance": 0.9, "charging_susceptance": 0.3, "branch_type": "line", "rating_long_term": 9000.0, "rating_short_term": 9000.0, "rating_emergency": 9000.0, "in_service": true, "angle_diff_min": -30.0, "angle_diff_max": 30.0, "pf": -16.733115206504102, "qf": 5.073618444867424, "pt": 17.017483602220075, "qt": -29.93111950060422, "pfl": 0.28436839571596984, "qfl": -24.857501055736797, "pf_dual": 3448.2982815752753, "qf_dual": 5.88515992256993e-09}}}, "system": {"model_name": "pglib_opf_case3_lmbd", "mpc_version": "'2'", "baseMVA": 100.0, "reference_bus": "1", "reference_bus_angle": 0.0, "total_cost": 5247.539449895996, "ploss": 2.806292990703327, "qloss": -90.80028363162552, "mult": 0.95}, "results": {"time": 0.020997047424316406, "#_cons": 36, "#_vars": 23, "termination": "optimal"}}